*MATERIAL, NAME=DECK
*ELASTIC
1.500e+04, 0.300
*DENSITY
1.200e+03
**
**
*PART, NAME=PART_TRUSS
**
*NODE,NSET=NODES_CHORD
1,0.00000,0.00000,0.00000
2,6.00000,0.00000,0.00000
3,10.00000,0.00000,0.00000
4,14.00000,0.00000,0.00000
5,20.00000,0.00000,0.00000
11,2.00000,0.00000,5.00000
12,7.50000,0.00000,5.00000
13,12.50000,0.00000,5.00000
14,18.00000,0.00000,5.00000
**
**
**********
** Member CHORD1
**********
*NODE,NSET=CHORD1
10001,0.10000,0.00000,0.00000
10002,0.48667,0.00000,0.00000
10003,0.87333,0.00000,0.00000
10004,1.26000,0.00000,0.00000
10005,1.64667,0.00000,0.00000
10006,2.03333,0.00000,0.00000
10007,2.42000,0.00000,0.00000
10008,2.80667,0.00000,0.00000
10009,3.19333,0.00000,0.00000
10010,3.58000,0.00000,0.00000
10011,3.96667,0.00000,0.00000
10012,4.35333,0.00000,0.00000
10013,4.74000,0.00000,0.00000
10014,5.12667,0.00000,0.00000
10015,5.51333,0.00000,0.00000
10016,5.90000,0.00000,0.00000
**
**
*ELEMENT, TYPE=B31, ELSET=CHORD1
10001, 1, 10002
10002, 10002, 10003
10003, 10003, 10004
10004, 10004, 10005
10005, 10005, 10006
10006, 10006, 10007
10007, 10007, 10008
10008, 10008, 10009
10009, 10009, 10010
10010, 10010, 10011
10011, 10011, 10012
10012, 10012, 10013
10013, 10013, 10014
10014, 10014, 10015
10015, 10015, 10016
**
**
** Extra node (b) for definition of orientation system
*NODE,NSET=CHORD1_BNODE
10000,0.10000,1.00000,0.00000
**
**
*ORIENTATION, NAME=CHORD1_LOCSYS, DEFINITION=NODES
2,10000,1
**
**
**
** Joint J1 for CHORD1 is continuous, no stiffness defined
**
**
** Joint J2
*ELEMENT, TYPE=JOINTC, ELSET=CHORD1_J2
10017, 10016, 2
*JOINT, ELSET=CHORD1_J2, ORIENTATION=CHORD1_LOCSYS
*SPRING
1,1
1.000e+12
*SPRING
2,2
1.000e+12
*SPRING
3,3
1.000e+12
*SPRING
4,4
1.000e+12
** Zero joint stiffness in DOF 5
** Zero joint stiffness in DOF 6
**
**
*BEAM GENERAL SECTION, ELSET=CHORD1, SECTION=GENERAL, DENSITY=7850.000
1.00000e-03, 1.00000e-07, 0.00000e+00, 1.00000e-06, 1.00000e-07
0.000, 1.000, 0.000
2.10000e+11, 8.10000e+10
**
**********
** Member CHORD2
**********
*NODE,NSET=CHORD2
10101,6.10000,0.00000,0.00000
10102,6.48000,0.00000,0.00000
10103,6.86000,0.00000,0.00000
10104,7.24000,0.00000,0.00000
10105,7.62000,0.00000,0.00000
10106,8.00000,0.00000,0.00000
10107,8.38000,0.00000,0.00000
10108,8.76000,0.00000,0.00000
10109,9.14000,0.00000,0.00000
10110,9.52000,0.00000,0.00000
10111,9.90000,0.00000,0.00000
**
**
*ELEMENT, TYPE=B31, ELSET=CHORD2
10101, 10101, 10102
10102, 10102, 10103
10103, 10103, 10104
10104, 10104, 10105
10105, 10105, 10106
10106, 10106, 10107
10107, 10107, 10108
10108, 10108, 10109
10109, 10109, 10110
10110, 10110, 10111
**
**
** Extra node (b) for definition of orientation system
*NODE,NSET=CHORD2_BNODE
10100,6.10000,1.00000,0.00000
**
**
*ORIENTATION, NAME=CHORD2_LOCSYS, DEFINITION=NODES
3,10100,2
**
**
**
** Joint J1
*ELEMENT, TYPE=JOINTC, ELSET=CHORD2_J1
10111, 2, 10101
*JOINT, ELSET=CHORD2_J1, ORIENTATION=CHORD2_LOCSYS
*SPRING
1,1
1.000e+12
*SPRING
2,2
1.000e+12
*SPRING
3,3
1.000e+12
*SPRING
4,4
1.000e+12
** Zero joint stiffness in DOF 5
** Zero joint stiffness in DOF 6
**
** Joint J2
*ELEMENT, TYPE=JOINTC, ELSET=CHORD2_J2
10112, 10111, 3
*JOINT, ELSET=CHORD2_J2, ORIENTATION=CHORD2_LOCSYS
*SPRING
1,1
1.000e+12
*SPRING
2,2
1.000e+12
*SPRING
3,3
1.000e+12
*SPRING
4,4
1.000e+12
** Zero joint stiffness in DOF 5
** Zero joint stiffness in DOF 6
**
**
*BEAM GENERAL SECTION, ELSET=CHORD2, SECTION=GENERAL, DENSITY=7850.000
1.00000e-03, 1.00000e-07, 0.00000e+00, 1.00000e-06, 1.00000e-07
0.000, 1.000, 0.000
2.10000e+11, 8.10000e+10
**
**********
** Member CHORD3
**********
*NODE,NSET=CHORD3
10201,10.10000,0.00000,0.00000
10202,10.48000,0.00000,0.00000
10203,10.86000,0.00000,0.00000
10204,11.24000,0.00000,0.00000
10205,11.62000,0.00000,0.00000
10206,12.00000,0.00000,0.00000
10207,12.38000,0.00000,0.00000
10208,12.76000,0.00000,0.00000
10209,13.14000,0.00000,0.00000
10210,13.52000,0.00000,0.00000
10211,13.90000,0.00000,0.00000
**
**
*ELEMENT, TYPE=B31, ELSET=CHORD3
10201, 10201, 10202
10202, 10202, 10203
10203, 10203, 10204
10204, 10204, 10205
10205, 10205, 10206
10206, 10206, 10207
10207, 10207, 10208
10208, 10208, 10209
10209, 10209, 10210
10210, 10210, 10211
**
**
** Extra node (b) for definition of orientation system
*NODE,NSET=CHORD3_BNODE
10200,10.10000,1.00000,0.00000
**
**
*ORIENTATION, NAME=CHORD3_LOCSYS, DEFINITION=NODES
4,10200,3
**
**
**
** Joint J1
*ELEMENT, TYPE=JOINTC, ELSET=CHORD3_J1
10211, 3, 10201
*JOINT, ELSET=CHORD3_J1, ORIENTATION=CHORD3_LOCSYS
*SPRING
1,1
1.000e+12
*SPRING
2,2
1.000e+12
*SPRING
3,3
1.000e+12
*SPRING
4,4
1.000e+12
** Zero joint stiffness in DOF 5
** Zero joint stiffness in DOF 6
**
** Joint J2
*ELEMENT, TYPE=JOINTC, ELSET=CHORD3_J2
10212, 10211, 4
*JOINT, ELSET=CHORD3_J2, ORIENTATION=CHORD3_LOCSYS
*SPRING
1,1
1.000e+12
*SPRING
2,2
1.000e+12
*SPRING
3,3
1.000e+12
*SPRING
4,4
1.000e+12
** Zero joint stiffness in DOF 5
** Zero joint stiffness in DOF 6
**
**
*BEAM GENERAL SECTION, ELSET=CHORD3, SECTION=GENERAL, DENSITY=7850.000
1.00000e-03, 1.00000e-07, 0.00000e+00, 1.00000e-06, 1.00000e-07
0.000, 1.000, 0.000
2.10000e+11, 8.10000e+10
**
**********
** Member CHORD4
**********
*NODE,NSET=CHORD4
10301,14.10000,0.00000,0.00000
10302,14.48667,0.00000,0.00000
10303,14.87333,0.00000,0.00000
10304,15.26000,0.00000,0.00000
10305,15.64667,0.00000,0.00000
10306,16.03333,0.00000,0.00000
10307,16.42000,0.00000,0.00000
10308,16.80667,0.00000,0.00000
10309,17.19333,0.00000,0.00000
10310,17.58000,0.00000,0.00000
10311,17.96667,0.00000,0.00000
10312,18.35333,0.00000,0.00000
10313,18.74000,0.00000,0.00000
10314,19.12667,0.00000,0.00000
10315,19.51333,0.00000,0.00000
10316,19.90000,0.00000,0.00000
**
**
*ELEMENT, TYPE=B31, ELSET=CHORD4
10301, 10301, 10302
10302, 10302, 10303
10303, 10303, 10304
10304, 10304, 10305
10305, 10305, 10306
10306, 10306, 10307
10307, 10307, 10308
10308, 10308, 10309
10309, 10309, 10310
10310, 10310, 10311
10311, 10311, 10312
10312, 10312, 10313
10313, 10313, 10314
10314, 10314, 10315
10315, 10315, 5
**
**
** Extra node (b) for definition of orientation system
*NODE,NSET=CHORD4_BNODE
10300,14.10000,1.00000,0.00000
**
**
*ORIENTATION, NAME=CHORD4_LOCSYS, DEFINITION=NODES
5,10300,4
**
**
**
** Joint J1
*ELEMENT, TYPE=JOINTC, ELSET=CHORD4_J1
10316, 4, 10301
*JOINT, ELSET=CHORD4_J1, ORIENTATION=CHORD4_LOCSYS
*SPRING
1,1
1.000e+12
*SPRING
2,2
1.000e+12
*SPRING
3,3
1.000e+12
*SPRING
4,4
1.000e+12
** Zero joint stiffness in DOF 5
** Zero joint stiffness in DOF 6
**
** Joint J2 for CHORD4 is continuous, no stiffness defined
**
**
**
*BEAM GENERAL SECTION, ELSET=CHORD4, SECTION=GENERAL, DENSITY=7850.000
1.00000e-03, 1.00000e-07, 0.00000e+00, 1.00000e-06, 1.00000e-07
0.000, 1.000, 0.000
2.10000e+11, 8.10000e+10
**
**********
** Member CHORD5
**********
*NODE,NSET=CHORD5
20101,2.10000,0.00000,5.00000
20102,2.47857,0.00000,5.00000
20103,2.85714,0.00000,5.00000
20104,3.23571,0.00000,5.00000
20105,3.61429,0.00000,5.00000
20106,3.99286,0.00000,5.00000
20107,4.37143,0.00000,5.00000
20108,4.75000,0.00000,5.00000
20109,5.12857,0.00000,5.00000
20110,5.50714,0.00000,5.00000
20111,5.88571,0.00000,5.00000
20112,6.26429,0.00000,5.00000
20113,6.64286,0.00000,5.00000
20114,7.02143,0.00000,5.00000
20115,7.40000,0.00000,5.00000
**
**
*ELEMENT, TYPE=B31, ELSET=CHORD5
20101, 20101, 20102
20102, 20102, 20103
20103, 20103, 20104
20104, 20104, 20105
20105, 20105, 20106
20106, 20106, 20107
20107, 20107, 20108
20108, 20108, 20109
20109, 20109, 20110
20110, 20110, 20111
20111, 20111, 20112
20112, 20112, 20113
20113, 20113, 20114
20114, 20114, 20115
**
**
** Extra node (b) for definition of orientation system
*NODE,NSET=CHORD5_BNODE
20100,2.10000,1.00000,5.00000
**
**
*ORIENTATION, NAME=CHORD5_LOCSYS, DEFINITION=NODES
12,20100,11
**
**
**
** Joint J1
*ELEMENT, TYPE=JOINTC, ELSET=CHORD5_J1
20115, 11, 20101
*JOINT, ELSET=CHORD5_J1, ORIENTATION=CHORD5_LOCSYS
*SPRING
1,1
1.000e+12
*SPRING
2,2
1.000e+12
*SPRING
3,3
1.000e+12
*SPRING
4,4
1.000e+12
** Zero joint stiffness in DOF 5
** Zero joint stiffness in DOF 6
**
** Joint J2
*ELEMENT, TYPE=JOINTC, ELSET=CHORD5_J2
20116, 20115, 12
*JOINT, ELSET=CHORD5_J2, ORIENTATION=CHORD5_LOCSYS
*SPRING
1,1
1.000e+12
*SPRING
2,2
1.000e+12
*SPRING
3,3
1.000e+12
*SPRING
4,4
1.000e+12
** Zero joint stiffness in DOF 5
** Zero joint stiffness in DOF 6
**
**
*BEAM GENERAL SECTION, ELSET=CHORD5, SECTION=GENERAL, DENSITY=7850.000
1.00000e-03, 1.00000e-07, 0.00000e+00, 1.00000e-06, 1.00000e-07
0.000, 1.000, 0.000
2.10000e+11, 8.10000e+10
**
**********
** Member CHORD6
**********
*NODE,NSET=CHORD6
20201,7.60000,0.00000,5.00000
20202,7.96923,0.00000,5.00000
20203,8.33846,0.00000,5.00000
20204,8.70769,0.00000,5.00000
20205,9.07692,0.00000,5.00000
20206,9.44615,0.00000,5.00000
20207,9.81538,0.00000,5.00000
20208,10.18462,0.00000,5.00000
20209,10.55385,0.00000,5.00000
20210,10.92308,0.00000,5.00000
20211,11.29231,0.00000,5.00000
20212,11.66154,0.00000,5.00000
20213,12.03077,0.00000,5.00000
20214,12.40000,0.00000,5.00000
**
**
*ELEMENT, TYPE=B31, ELSET=CHORD6
20201, 20201, 20202
20202, 20202, 20203
20203, 20203, 20204
20204, 20204, 20205
20205, 20205, 20206
20206, 20206, 20207
20207, 20207, 20208
20208, 20208, 20209
20209, 20209, 20210
20210, 20210, 20211
20211, 20211, 20212
20212, 20212, 20213
20213, 20213, 20214
**
**
** Extra node (b) for definition of orientation system
*NODE,NSET=CHORD6_BNODE
20200,7.60000,1.00000,5.00000
**
**
*ORIENTATION, NAME=CHORD6_LOCSYS, DEFINITION=NODES
13,20200,12
**
**
**
** Joint J1
*ELEMENT, TYPE=JOINTC, ELSET=CHORD6_J1
20214, 12, 20201
*JOINT, ELSET=CHORD6_J1, ORIENTATION=CHORD6_LOCSYS
*SPRING
1,1
1.000e+12
*SPRING
2,2
1.000e+12
*SPRING
3,3
1.000e+12
*SPRING
4,4
1.000e+12
** Zero joint stiffness in DOF 5
** Zero joint stiffness in DOF 6
**
** Joint J2
*ELEMENT, TYPE=JOINTC, ELSET=CHORD6_J2
20215, 20214, 13
*JOINT, ELSET=CHORD6_J2, ORIENTATION=CHORD6_LOCSYS
*SPRING
1,1
1.000e+12
*SPRING
2,2
1.000e+12
*SPRING
3,3
1.000e+12
*SPRING
4,4
1.000e+12
** Zero joint stiffness in DOF 5
** Zero joint stiffness in DOF 6
**
**
*BEAM GENERAL SECTION, ELSET=CHORD6, SECTION=GENERAL, DENSITY=7850.000
1.00000e-03, 1.00000e-07, 0.00000e+00, 1.00000e-06, 1.00000e-07
0.000, 1.000, 0.000
2.10000e+11, 8.10000e+10
**
**********
** Member CHORD7
**********
*NODE,NSET=CHORD7
20301,12.60000,0.00000,5.00000
20302,12.97857,0.00000,5.00000
20303,13.35714,0.00000,5.00000
20304,13.73571,0.00000,5.00000
20305,14.11429,0.00000,5.00000
20306,14.49286,0.00000,5.00000
20307,14.87143,0.00000,5.00000
20308,15.25000,0.00000,5.00000
20309,15.62857,0.00000,5.00000
20310,16.00714,0.00000,5.00000
20311,16.38571,0.00000,5.00000
20312,16.76429,0.00000,5.00000
20313,17.14286,0.00000,5.00000
20314,17.52143,0.00000,5.00000
20315,17.90000,0.00000,5.00000
**
**
*ELEMENT, TYPE=B31, ELSET=CHORD7
20301, 20301, 20302
20302, 20302, 20303
20303, 20303, 20304
20304, 20304, 20305
20305, 20305, 20306
20306, 20306, 20307
20307, 20307, 20308
20308, 20308, 20309
20309, 20309, 20310
20310, 20310, 20311
20311, 20311, 20312
20312, 20312, 20313
20313, 20313, 20314
20314, 20314, 20315
**
**
** Extra node (b) for definition of orientation system
*NODE,NSET=CHORD7_BNODE
20300,12.60000,1.00000,5.00000
**
**
*ORIENTATION, NAME=CHORD7_LOCSYS, DEFINITION=NODES
14,20300,13
**
**
**
** Joint J1
*ELEMENT, TYPE=JOINTC, ELSET=CHORD7_J1
20315, 13, 20301
*JOINT, ELSET=CHORD7_J1, ORIENTATION=CHORD7_LOCSYS
*SPRING
1,1
1.000e+12
*SPRING
2,2
1.000e+12
*SPRING
3,3
1.000e+12
*SPRING
4,4
1.000e+12
** Zero joint stiffness in DOF 5
** Zero joint stiffness in DOF 6
**
** Joint J2
*ELEMENT, TYPE=JOINTC, ELSET=CHORD7_J2
20316, 20315, 14
*JOINT, ELSET=CHORD7_J2, ORIENTATION=CHORD7_LOCSYS
*SPRING
1,1
1.000e+12
*SPRING
2,2
1.000e+12
*SPRING
3,3
1.000e+12
*SPRING
4,4
1.000e+12
** Zero joint stiffness in DOF 5
** Zero joint stiffness in DOF 6
**
**
*BEAM GENERAL SECTION, ELSET=CHORD7, SECTION=GENERAL, DENSITY=7850.000
1.00000e-03, 1.00000e-07, 0.00000e+00, 1.00000e-06, 1.00000e-07
0.000, 1.000, 0.000
2.10000e+11, 8.10000e+10
**
**********
** Member DIA1
**********
*NODE,NSET=DIA1
30101,0.03714,0.00000,0.09285
30102,0.21220,0.00000,0.53051
30103,0.38727,0.00000,0.96818
30104,0.56234,0.00000,1.40584
30105,0.73740,0.00000,1.84350
30106,0.91247,0.00000,2.28117
30107,1.08753,0.00000,2.71883
30108,1.26260,0.00000,3.15650
30109,1.43766,0.00000,3.59416
30110,1.61273,0.00000,4.03182
30111,1.78780,0.00000,4.46949
30112,1.96286,0.00000,4.90715
**
**
*ELEMENT, TYPE=B31, ELSET=DIA1
30101, 30101, 30102
30102, 30102, 30103
30103, 30103, 30104
30104, 30104, 30105
30105, 30105, 30106
30106, 30106, 30107
30107, 30107, 30108
30108, 30108, 30109
30109, 30109, 30110
30110, 30110, 30111
30111, 30111, 30112
**
**
** Extra node (b) for definition of orientation system
*NODE,NSET=DIA1_BNODE
30100,0.03714,1.00000,0.09285
**
**
*ORIENTATION, NAME=DIA1_LOCSYS, DEFINITION=NODES
11,30100,1
**
**
**
** Joint J1
*ELEMENT, TYPE=JOINTC, ELSET=DIA1_J1
30112, 1, 30101
*JOINT, ELSET=DIA1_J1, ORIENTATION=DIA1_LOCSYS
*SPRING
1,1
1.000e+10
*SPRING
2,2
1.000e+10
*SPRING
3,3
1.000e+10
*SPRING
4,4
1.000e+10
** Zero joint stiffness in DOF 5
** Zero joint stiffness in DOF 6
**
** Joint J2
*ELEMENT, TYPE=JOINTC, ELSET=DIA1_J2
30113, 30112, 11
*JOINT, ELSET=DIA1_J2, ORIENTATION=DIA1_LOCSYS
*SPRING
1,1
1.000e+10
*SPRING
2,2
1.000e+10
*SPRING
3,3
1.000e+10
*SPRING
4,4
1.000e+10
** Zero joint stiffness in DOF 5
** Zero joint stiffness in DOF 6
**
**
*BEAM GENERAL SECTION, ELSET=DIA1, SECTION=GENERAL, DENSITY=7850.000
1.00000e-03, 1.00000e-07, 0.00000e+00, 1.00000e-06, 1.00000e-07
0.000, 1.000, 0.000
2.10000e+11, 8.10000e+10
**
**********
** Member DIA2
**********
*NODE,NSET=DIA2
30201,2.06247,0.00000,4.92191
30202,2.36055,0.00000,4.54931
30203,2.65863,0.00000,4.17671
30204,2.95671,0.00000,3.80411
30205,3.25480,0.00000,3.43151
30206,3.55288,0.00000,3.05890
30207,3.85096,0.00000,2.68630
30208,4.14904,0.00000,2.31370
30209,4.44712,0.00000,1.94110
30210,4.74520,0.00000,1.56849
30211,5.04329,0.00000,1.19589
30212,5.34137,0.00000,0.82329
30213,5.63945,0.00000,0.45069
30214,5.93753,0.00000,0.07809
**
**
*ELEMENT, TYPE=B31, ELSET=DIA2
30201, 30201, 30202
30202, 30202, 30203
30203, 30203, 30204
30204, 30204, 30205
30205, 30205, 30206
30206, 30206, 30207
30207, 30207, 30208
30208, 30208, 30209
30209, 30209, 30210
30210, 30210, 30211
30211, 30211, 30212
30212, 30212, 30213
30213, 30213, 30214
**
**
** Extra node (b) for definition of orientation system
*NODE,NSET=DIA2_BNODE
30200,2.06247,1.00000,4.92191
**
**
*ORIENTATION, NAME=DIA2_LOCSYS, DEFINITION=NODES
2,30200,11
**
**
**
** Joint J1
*ELEMENT, TYPE=JOINTC, ELSET=DIA2_J1
30214, 11, 30201
*JOINT, ELSET=DIA2_J1, ORIENTATION=DIA2_LOCSYS
*SPRING
1,1
1.000e+10
*SPRING
2,2
1.000e+10
*SPRING
3,3
1.000e+10
*SPRING
4,4
1.000e+10
** Zero joint stiffness in DOF 5
** Zero joint stiffness in DOF 6
**
** Joint J2
*ELEMENT, TYPE=JOINTC, ELSET=DIA2_J2
30215, 30214, 2
*JOINT, ELSET=DIA2_J2, ORIENTATION=DIA2_LOCSYS
*SPRING
1,1
1.000e+10
*SPRING
2,2
1.000e+10
*SPRING
3,3
1.000e+10
*SPRING
4,4
1.000e+10
** Zero joint stiffness in DOF 5
** Zero joint stiffness in DOF 6
**
**
*BEAM GENERAL SECTION, ELSET=DIA2, SECTION=GENERAL, DENSITY=7850.000
1.00000e-03, 1.00000e-07, 0.00000e+00, 1.00000e-06, 1.00000e-07
0.000, 1.000, 0.000
2.10000e+11, 8.10000e+10
**
**********
** Member DIA3
**********
*NODE,NSET=DIA3
30301,6.02873,0.00000,0.09578
30302,6.15987,0.00000,0.53291
30303,6.29101,0.00000,0.97004
30304,6.42215,0.00000,1.40717
30305,6.55329,0.00000,1.84430
30306,6.68443,0.00000,2.28143
30307,6.81557,0.00000,2.71857
30308,6.94671,0.00000,3.15570
30309,7.07785,0.00000,3.59283
30310,7.20899,0.00000,4.02996
30311,7.34013,0.00000,4.46709
30312,7.47127,0.00000,4.90422
**
**
*ELEMENT, TYPE=B31, ELSET=DIA3
30301, 30301, 30302
30302, 30302, 30303
30303, 30303, 30304
30304, 30304, 30305
30305, 30305, 30306
30306, 30306, 30307
30307, 30307, 30308
30308, 30308, 30309
30309, 30309, 30310
30310, 30310, 30311
30311, 30311, 30312
**
**
** Extra node (b) for definition of orientation system
*NODE,NSET=DIA3_BNODE
30300,6.02873,1.00000,0.09578
**
**
*ORIENTATION, NAME=DIA3_LOCSYS, DEFINITION=NODES
12,30300,2
**
**
**
** Joint J1
*ELEMENT, TYPE=JOINTC, ELSET=DIA3_J1
30312, 2, 30301
*JOINT, ELSET=DIA3_J1, ORIENTATION=DIA3_LOCSYS
*SPRING
1,1
1.000e+10
*SPRING
2,2
1.000e+10
*SPRING
3,3
1.000e+10
*SPRING
4,4
1.000e+10
** Zero joint stiffness in DOF 5
** Zero joint stiffness in DOF 6
**
** Joint J2
*ELEMENT, TYPE=JOINTC, ELSET=DIA3_J2
30313, 30312, 12
*JOINT, ELSET=DIA3_J2, ORIENTATION=DIA3_LOCSYS
*SPRING
1,1
1.000e+10
*SPRING
2,2
1.000e+10
*SPRING
3,3
1.000e+10
*SPRING
4,4
1.000e+10
** Zero joint stiffness in DOF 5
** Zero joint stiffness in DOF 6
**
**
*BEAM GENERAL SECTION, ELSET=DIA3, SECTION=GENERAL, DENSITY=7850.000
1.00000e-03, 1.00000e-07, 0.00000e+00, 1.00000e-06, 1.00000e-07
0.000, 1.000, 0.000
2.10000e+11, 8.10000e+10
**
**********
** Member DIA4
**********
*NODE,NSET=DIA4
30401,7.54472,0.00000,4.91056
30402,7.74560,0.00000,4.50880
30403,7.94648,0.00000,4.10704
30404,8.14736,0.00000,3.70528
30405,8.34824,0.00000,3.30352
30406,8.54912,0.00000,2.90176
30407,8.75000,0.00000,2.50000
30408,8.95088,0.00000,2.09824
30409,9.15176,0.00000,1.69648
30410,9.35264,0.00000,1.29472
30411,9.55352,0.00000,0.89296
30412,9.75440,0.00000,0.49120
30413,9.95528,0.00000,0.08944
**
**
*ELEMENT, TYPE=B31, ELSET=DIA4
30401, 30401, 30402
30402, 30402, 30403
30403, 30403, 30404
30404, 30404, 30405
30405, 30405, 30406
30406, 30406, 30407
30407, 30407, 30408
30408, 30408, 30409
30409, 30409, 30410
30410, 30410, 30411
30411, 30411, 30412
30412, 30412, 30413
**
**
** Extra node (b) for definition of orientation system
*NODE,NSET=DIA4_BNODE
30400,7.54472,1.00000,4.91056
**
**
*ORIENTATION, NAME=DIA4_LOCSYS, DEFINITION=NODES
3,30400,12
**
**
**
** Joint J1
*ELEMENT, TYPE=JOINTC, ELSET=DIA4_J1
30413, 12, 30401
*JOINT, ELSET=DIA4_J1, ORIENTATION=DIA4_LOCSYS
*SPRING
1,1
1.000e+10
*SPRING
2,2
1.000e+10
*SPRING
3,3
1.000e+10
*SPRING
4,4
1.000e+10
** Zero joint stiffness in DOF 5
** Zero joint stiffness in DOF 6
**
** Joint J2
*ELEMENT, TYPE=JOINTC, ELSET=DIA4_J2
30414, 30413, 3
*JOINT, ELSET=DIA4_J2, ORIENTATION=DIA4_LOCSYS
*SPRING
1,1
1.000e+10
*SPRING
2,2
1.000e+10
*SPRING
3,3
1.000e+10
*SPRING
4,4
1.000e+10
** Zero joint stiffness in DOF 5
** Zero joint stiffness in DOF 6
**
**
*BEAM GENERAL SECTION, ELSET=DIA4, SECTION=GENERAL, DENSITY=7850.000
1.00000e-03, 1.00000e-07, 0.00000e+00, 1.00000e-06, 1.00000e-07
0.000, 1.000, 0.000
2.10000e+11, 8.10000e+10
**
**********
** Member DIA5
**********
*NODE,NSET=DIA5
30501,10.04472,0.00000,0.08944
30502,10.24560,0.00000,0.49120
30503,10.44648,0.00000,0.89296
30504,10.64736,0.00000,1.29472
30505,10.84824,0.00000,1.69648
30506,11.04912,0.00000,2.09824
30507,11.25000,0.00000,2.50000
30508,11.45088,0.00000,2.90176
30509,11.65176,0.00000,3.30352
30510,11.85264,0.00000,3.70528
30511,12.05352,0.00000,4.10704
30512,12.25440,0.00000,4.50880
30513,12.45528,0.00000,4.91056
**
**
*ELEMENT, TYPE=B31, ELSET=DIA5
30501, 30501, 30502
30502, 30502, 30503
30503, 30503, 30504
30504, 30504, 30505
30505, 30505, 30506
30506, 30506, 30507
30507, 30507, 30508
30508, 30508, 30509
30509, 30509, 30510
30510, 30510, 30511
30511, 30511, 30512
30512, 30512, 30513
**
**
** Extra node (b) for definition of orientation system
*NODE,NSET=DIA5_BNODE
30500,10.04472,1.00000,0.08944
**
**
*ORIENTATION, NAME=DIA5_LOCSYS, DEFINITION=NODES
13,30500,3
**
**
**
** Joint J1
*ELEMENT, TYPE=JOINTC, ELSET=DIA5_J1
30513, 3, 30501
*JOINT, ELSET=DIA5_J1, ORIENTATION=DIA5_LOCSYS
*SPRING
1,1
1.000e+10
*SPRING
2,2
1.000e+10
*SPRING
3,3
1.000e+10
*SPRING
4,4
1.000e+10
** Zero joint stiffness in DOF 5
** Zero joint stiffness in DOF 6
**
** Joint J2
*ELEMENT, TYPE=JOINTC, ELSET=DIA5_J2
30514, 30513, 13
*JOINT, ELSET=DIA5_J2, ORIENTATION=DIA5_LOCSYS
*SPRING
1,1
1.000e+10
*SPRING
2,2
1.000e+10
*SPRING
3,3
1.000e+10
*SPRING
4,4
1.000e+10
** Zero joint stiffness in DOF 5
** Zero joint stiffness in DOF 6
**
**
*BEAM GENERAL SECTION, ELSET=DIA5, SECTION=GENERAL, DENSITY=7850.000
1.00000e-03, 1.00000e-07, 0.00000e+00, 1.00000e-06, 1.00000e-07
0.000, 1.000, 0.000
2.10000e+11, 8.10000e+10
**
**********
** Member DIA6
**********
*NODE,NSET=DIA6
30601,12.52873,0.00000,4.90422
30602,12.65987,0.00000,4.46709
30603,12.79101,0.00000,4.02996
30604,12.92215,0.00000,3.59283
30605,13.05329,0.00000,3.15570
30606,13.18443,0.00000,2.71857
30607,13.31557,0.00000,2.28143
30608,13.44671,0.00000,1.84430
30609,13.57785,0.00000,1.40717
30610,13.70899,0.00000,0.97004
30611,13.84013,0.00000,0.53291
30612,13.97127,0.00000,0.09578
**
**
*ELEMENT, TYPE=B31, ELSET=DIA6
30601, 30601, 30602
30602, 30602, 30603
30603, 30603, 30604
30604, 30604, 30605
30605, 30605, 30606
30606, 30606, 30607
30607, 30607, 30608
30608, 30608, 30609
30609, 30609, 30610
30610, 30610, 30611
30611, 30611, 30612
**
**
** Extra node (b) for definition of orientation system
*NODE,NSET=DIA6_BNODE
30600,12.52873,1.00000,4.90422
**
**
*ORIENTATION, NAME=DIA6_LOCSYS, DEFINITION=NODES
4,30600,13
**
**
**
** Joint J1
*ELEMENT, TYPE=JOINTC, ELSET=DIA6_J1
30612, 13, 30601
*JOINT, ELSET=DIA6_J1, ORIENTATION=DIA6_LOCSYS
*SPRING
1,1
1.000e+10
*SPRING
2,2
1.000e+10
*SPRING
3,3
1.000e+10
*SPRING
4,4
1.000e+10
** Zero joint stiffness in DOF 5
** Zero joint stiffness in DOF 6
**
** Joint J2
*ELEMENT, TYPE=JOINTC, ELSET=DIA6_J2
30613, 30612, 4
*JOINT, ELSET=DIA6_J2, ORIENTATION=DIA6_LOCSYS
*SPRING
1,1
1.000e+10
*SPRING
2,2
1.000e+10
*SPRING
3,3
1.000e+10
*SPRING
4,4
1.000e+10
** Zero joint stiffness in DOF 5
** Zero joint stiffness in DOF 6
**
**
*BEAM GENERAL SECTION, ELSET=DIA6, SECTION=GENERAL, DENSITY=7850.000
1.00000e-03, 1.00000e-07, 0.00000e+00, 1.00000e-06, 1.00000e-07
0.000, 1.000, 0.000
2.10000e+11, 8.10000e+10
**
**********
** Member DIA7
**********
*NODE,NSET=DIA7
30701,14.06247,0.00000,0.07809
30702,14.36055,0.00000,0.45069
30703,14.65863,0.00000,0.82329
30704,14.95671,0.00000,1.19589
30705,15.25480,0.00000,1.56849
30706,15.55288,0.00000,1.94110
30707,15.85096,0.00000,2.31370
30708,16.14904,0.00000,2.68630
30709,16.44712,0.00000,3.05890
30710,16.74520,0.00000,3.43151
30711,17.04329,0.00000,3.80411
30712,17.34137,0.00000,4.17671
30713,17.63945,0.00000,4.54931
30714,17.93753,0.00000,4.92191
**
**
*ELEMENT, TYPE=B31, ELSET=DIA7
30701, 30701, 30702
30702, 30702, 30703
30703, 30703, 30704
30704, 30704, 30705
30705, 30705, 30706
30706, 30706, 30707
30707, 30707, 30708
30708, 30708, 30709
30709, 30709, 30710
30710, 30710, 30711
30711, 30711, 30712
30712, 30712, 30713
30713, 30713, 30714
**
**
** Extra node (b) for definition of orientation system
*NODE,NSET=DIA7_BNODE
30700,14.06247,1.00000,0.07809
**
**
*ORIENTATION, NAME=DIA7_LOCSYS, DEFINITION=NODES
14,30700,4
**
**
**
** Joint J1
*ELEMENT, TYPE=JOINTC, ELSET=DIA7_J1
30714, 4, 30701
*JOINT, ELSET=DIA7_J1, ORIENTATION=DIA7_LOCSYS
*SPRING
1,1
1.000e+10
*SPRING
2,2
1.000e+10
*SPRING
3,3
1.000e+10
*SPRING
4,4
1.000e+10
** Zero joint stiffness in DOF 5
** Zero joint stiffness in DOF 6
**
** Joint J2
*ELEMENT, TYPE=JOINTC, ELSET=DIA7_J2
30715, 30714, 14
*JOINT, ELSET=DIA7_J2, ORIENTATION=DIA7_LOCSYS
*SPRING
1,1
1.000e+10
*SPRING
2,2
1.000e+10
*SPRING
3,3
1.000e+10
*SPRING
4,4
1.000e+10
** Zero joint stiffness in DOF 5
** Zero joint stiffness in DOF 6
**
**
*BEAM GENERAL SECTION, ELSET=DIA7, SECTION=GENERAL, DENSITY=7850.000
1.00000e-03, 1.00000e-07, 0.00000e+00, 1.00000e-06, 1.00000e-07
0.000, 1.000, 0.000
2.10000e+11, 8.10000e+10
**
**********
** Member DIA8
**********
*NODE,NSET=DIA8
30801,18.03714,0.00000,4.90715
30802,18.21220,0.00000,4.46949
30803,18.38727,0.00000,4.03182
30804,18.56234,0.00000,3.59416
30805,18.73740,0.00000,3.15650
30806,18.91247,0.00000,2.71883
30807,19.08753,0.00000,2.28117
30808,19.26260,0.00000,1.84350
30809,19.43766,0.00000,1.40584
30810,19.61273,0.00000,0.96818
30811,19.78780,0.00000,0.53051
30812,19.96286,0.00000,0.09285
**
**
*ELEMENT, TYPE=B31, ELSET=DIA8
30801, 30801, 30802
30802, 30802, 30803
30803, 30803, 30804
30804, 30804, 30805
30805, 30805, 30806
30806, 30806, 30807
30807, 30807, 30808
30808, 30808, 30809
30809, 30809, 30810
30810, 30810, 30811
30811, 30811, 30812
**
**
** Extra node (b) for definition of orientation system
*NODE,NSET=DIA8_BNODE
30800,18.03714,1.00000,4.90715
**
**
*ORIENTATION, NAME=DIA8_LOCSYS, DEFINITION=NODES
5,30800,14
**
**
**
** Joint J1
*ELEMENT, TYPE=JOINTC, ELSET=DIA8_J1
30812, 14, 30801
*JOINT, ELSET=DIA8_J1, ORIENTATION=DIA8_LOCSYS
*SPRING
1,1
1.000e+10
*SPRING
2,2
1.000e+10
*SPRING
3,3
1.000e+10
*SPRING
4,4
1.000e+10
** Zero joint stiffness in DOF 5
** Zero joint stiffness in DOF 6
**
** Joint J2
*ELEMENT, TYPE=JOINTC, ELSET=DIA8_J2
30813, 30812, 5
*JOINT, ELSET=DIA8_J2, ORIENTATION=DIA8_LOCSYS
*SPRING
1,1
1.000e+10
*SPRING
2,2
1.000e+10
*SPRING
3,3
1.000e+10
*SPRING
4,4
1.000e+10
** Zero joint stiffness in DOF 5
** Zero joint stiffness in DOF 6
**
**
*BEAM GENERAL SECTION, ELSET=DIA8, SECTION=GENERAL, DENSITY=7850.000
1.00000e-03, 1.00000e-07, 0.00000e+00, 1.00000e-06, 1.00000e-07
0.000, 1.000, 0.000
2.10000e+11, 8.10000e+10
**
*NSET, NSET=SUPPORT
1,5
**
**
*NODE,NSET=DECK
500000,1.00000,0.00000,0.00000
500001,2.00000,0.00000,0.00000
500002,3.00000,0.00000,0.00000
500003,4.00000,0.00000,0.00000
500004,5.00000,0.00000,0.00000
500005,6.00000,0.00000,0.00000
500006,7.00000,0.00000,0.00000
500007,8.00000,0.00000,0.00000
500008,9.00000,0.00000,0.00000
500009,10.00000,0.00000,0.00000
500010,11.00000,0.00000,0.00000
500011,12.00000,0.00000,0.00000
500012,13.00000,0.00000,0.00000
500013,14.00000,0.00000,0.00000
500014,15.00000,0.00000,0.00000
500015,16.00000,0.00000,0.00000
500016,17.00000,0.00000,0.00000
500017,18.00000,0.00000,0.00000
500018,19.00000,0.00000,0.00000
500019,20.00000,0.00000,0.00000
** ... 1091 like lines cut
**
**
*ELEMENT, TYPE=S4, ELSET=DECK
500000, 500000, 500001, 501001, 499999
500001, 500001, 500002, 501002, 500000
500002, 500002, 500003, 501003, 500001
500003, 500003, 500004, 501004, 500002
500004, 500004, 500005, 501005, 500003
500005, 500005, 500006, 501006, 500004
500006, 500006, 500007, 501007, 500005
500007, 500007, 500008, 501008, 500006
500008, 500008, 500009, 501009, 500007
500009, 500009, 500010, 501010, 500008
500010, 500010, 500011, 501011, 500009
500011, 500011, 500012, 501012, 500010
500012, 500012, 500013, 501013, 500011
500013, 500013, 500014, 501014, 500012
500014, 500014, 500015, 501015, 500013
500015, 500015, 500016, 501016, 500014
500016, 500016, 500017, 501017, 500015
500017, 500017, 500018, 501018, 500016
500018, 500018, 500019, 501019, 500017
500019, 500019, 500020, 501020, 500018
** ... 1080 like lines cut
**
**
*SHELL SECTION, ELSET=DECK, MATERIAL=DECK, OFFSET=0
0.200,5
**
*END PART
**
***********************************************************
** ASSEMBLY
***********************************************************
*ASSEMBLY, NAME=AS_TRUSS
**
*INSTANCE, NAME=PART_TRUSS, PART=PART_TRUSS
**
*END INSTANCE
**
*END ASSEMBLY
**
**********
** 
**********
*STEP , NAME=STEP_MODAL
*FREQUENCY, NORMALIZATION=DISPLACEMENT, SIM=NO
50
**
**
*BOUNDARY, OP=NEW
PART_TRUSS.support,1,4,0
**
**
*BOUNDARY, OP=NEW
PART_TRUSS.NODES_CHORD,2,2,0
**
**
*OUTPUT, FIELD
*NODE OUTPUT 
U
COORD
**
*OUTPUT, FIELD
*ELEMENT OUTPUT 
SF
S
**
*END STEP
**
**
